<?xml version="1.0" encoding="UTF-8"?>
<routes xmlns:xsi="http://www.w3.org/2001/XMLSchema-instance" xsi:noNamespaceSchemaLocation="http://sumo.dlr.de/xsd/routes_file.xsd">

    <!-- Define a vehicle type -->
    <vType id="car" accel="2.6" decel="4.5" sigma="0.5" length="5" minGap="10" maxSpeed="20" color="1,0,0" />

    <!-- Define vehicles with routes -->
    <vehicle id="v_0" type="car" depart="0.00" color="0,255,0">
        <route edges="E0"/>
        <param key="laneChangeModel" value="LC2013"/>
        <param key="carFollowModel" value="Krauss"/>
    </vehicle>
    <vehicle id="v_1" type="car" depart="2.00" color="255,0,0">
        <route edges="E0"/>
        <param key="laneChangeModel" value="LC2013"/>
        <param key="carFollowModel" value="Krauss"/>
    </vehicle>
    <vehicle id="v_2" type="car" depart="5.00" color="0,0,255">
        <route edges="E0"/>
        <param key="laneChangeModel" value="LC2013"/>
        <param key="carFollowModel" value="Krauss"/>
    </vehicle>
    <vehicle id="v_3" type="car" depart="7.00" color="255,110,0">
        <route edges="E0"/>
        <param key="laneChangeModel" value="LC2013"/>
        <param key="carFollowModel" value="Krauss"/>
    </vehicle>
    <vehicle id="v_4" type="car" depart="10.00" color="255,44,0">
        <route edges="E0"/>
        <param key="laneChangeModel" value="LC2013"/>
        <param key="carFollowModel" value="Krauss"/>
    </vehicle>
    <vehicle id="v_5" type="car" depart="12.00" color="128,128,128">
        <route edges="E0"/>
        <param key="laneChangeModel" value="LC2013"/>
        <param key="carFollowModel" value="Krauss"/>
    </vehicle>
</routes>
